IJAU11/trf167839-mult2.0-pv.dss
New "PVsystem.GD.BT_3998960_M1" phases=3 bus1=1003998960.1.2.3.4 conn=Delta kv=0.22 pf=0.92 pmpp=2.7795150493756817 kva=3 irradiance=0.98
~ temperature=25 %cutin=0.1 %cutout=0.1 effcurve=Myeff P-TCurve=MyPvsT Daily=PVIrrad_diaria TDaily=MyTemp

New "PVsystem.GD.BT_3998960_M2" phases=3 bus1=1003998960.1.2.3.4 conn=Delta kv=0.22 pf=0.92 pmpp=2.7795150493756817 kva=3 irradiance=0.98
~ temperature=25 %cutin=0.1 %cutout=0.1 effcurve=Myeff P-TCurve=MyPvsT Daily=PVIrrad_diaria TDaily=MyTemp

New "PVsystem.GD.BT_1049937_M1" phases=3 bus1=1001049937.1.2.3.4 conn=Delta kv=0.22 pf=0.92 pmpp=1.5635226472834314 kva=2 irradiance=0.98
~ temperature=25 %cutin=0.1 %cutout=0.1 effcurve=Myeff P-TCurve=MyPvsT Daily=PVIrrad_diaria TDaily=MyTemp

New "PVsystem.GD.BT_1049937_M2" phases=3 bus1=1001049937.1.2.3.4 conn=Delta kv=0.22 pf=0.92 pmpp=1.5635226472834314 kva=2 irradiance=0.98
~ temperature=25 %cutin=0.1 %cutout=0.1 effcurve=Myeff P-TCurve=MyPvsT Daily=PVIrrad_diaria TDaily=MyTemp

New "PVsystem.GD.BT_3885504_M1" phases=3 bus1=1003885504.1.2.3.4 conn=Delta kv=0.22 pf=0.92 pmpp=0.6802799860136544 kva=1 irradiance=0.98
~ temperature=25 %cutin=0.1 %cutout=0.1 effcurve=Myeff P-TCurve=MyPvsT Daily=PVIrrad_diaria TDaily=MyTemp

New "PVsystem.GD.BT_3885504_M2" phases=3 bus1=1003885504.1.2.3.4 conn=Delta kv=0.22 pf=0.92 pmpp=0.6802799860136544 kva=1 irradiance=0.98
~ temperature=25 %cutin=0.1 %cutout=0.1 effcurve=Myeff P-TCurve=MyPvsT Daily=PVIrrad_diaria TDaily=MyTemp

New "PVsystem.GD.BT_1050000_M1" phases=3 bus1=1001050000.1.2.3.4 conn=Delta kv=0.22 pf=0.92 pmpp=2.1729386062833003 kva=3 irradiance=0.98
~ temperature=25 %cutin=0.1 %cutout=0.1 effcurve=Myeff P-TCurve=MyPvsT Daily=PVIrrad_diaria TDaily=MyTemp

New "PVsystem.GD.BT_1050000_M2" phases=3 bus1=1001050000.1.2.3.4 conn=Delta kv=0.22 pf=0.92 pmpp=2.1729386062833003 kva=3 irradiance=0.98
~ temperature=25 %cutin=0.1 %cutout=0.1 effcurve=Myeff P-TCurve=MyPvsT Daily=PVIrrad_diaria TDaily=MyTemp

New "PVsystem.GD.BT_1050014_M1" phases=3 bus1=1001050014.1.2.3.4 conn=Delta kv=0.22 pf=0.92 pmpp=0.9972008232553343 kva=1 irradiance=0.98
~ temperature=25 %cutin=0.1 %cutout=0.1 effcurve=Myeff P-TCurve=MyPvsT Daily=PVIrrad_diaria TDaily=MyTemp

New "PVsystem.GD.BT_1050014_M2" phases=3 bus1=1001050014.1.2.3.4 conn=Delta kv=0.22 pf=0.92 pmpp=0.9972008232553343 kva=1 irradiance=0.98
~ temperature=25 %cutin=0.1 %cutout=0.1 effcurve=Myeff P-TCurve=MyPvsT Daily=PVIrrad_diaria TDaily=MyTemp

New "PVsystem.GD.BT_4892503_M1" phases=1 bus1=1004892503.1.4 conn=Delta kv=0.22 pf=0.92 pmpp=2.6620096054604945 kva=3 irradiance=0.98
~ temperature=25 %cutin=0.1 %cutout=0.1 effcurve=Myeff P-TCurve=MyPvsT Daily=PVIrrad_diaria TDaily=MyTemp

New "PVsystem.GD.BT_4892503_M2" phases=1 bus1=1004892503.1.4 conn=Delta kv=0.22 pf=0.92 pmpp=2.6620096054604945 kva=3 irradiance=0.98
~ temperature=25 %cutin=0.1 %cutout=0.1 effcurve=Myeff P-TCurve=MyPvsT Daily=PVIrrad_diaria TDaily=MyTemp

New "PVsystem.GD.BT_11382069_M1" phases=1 bus1=1011382069.1.2.4 conn=Delta kv=0.22 pf=0.92 pmpp=0.1760152644489713 kva=1 irradiance=0.98
~ temperature=25 %cutin=0.1 %cutout=0.1 effcurve=Myeff P-TCurve=MyPvsT Daily=PVIrrad_diaria TDaily=MyTemp

New "PVsystem.GD.BT_11382069_M2" phases=1 bus1=1011382069.1.2.4 conn=Delta kv=0.22 pf=0.92 pmpp=0.1760152644489713 kva=1 irradiance=0.98
~ temperature=25 %cutin=0.1 %cutout=0.1 effcurve=Myeff P-TCurve=MyPvsT Daily=PVIrrad_diaria TDaily=MyTemp

New "PVsystem.GD.BT_1050056_M1" phases=3 bus1=1001050056.1.2.3.4 conn=Delta kv=0.22 pf=0.92 pmpp=2.22272051747139 kva=3 irradiance=0.98
~ temperature=25 %cutin=0.1 %cutout=0.1 effcurve=Myeff P-TCurve=MyPvsT Daily=PVIrrad_diaria TDaily=MyTemp

New "PVsystem.GD.BT_1050056_M2" phases=3 bus1=1001050056.1.2.3.4 conn=Delta kv=0.22 pf=0.92 pmpp=2.22272051747139 kva=3 irradiance=0.98
~ temperature=25 %cutin=0.1 %cutout=0.1 effcurve=Myeff P-TCurve=MyPvsT Daily=PVIrrad_diaria TDaily=MyTemp

New "PVsystem.GD.BT_1049993_M1" phases=3 bus1=1001049993.1.2.3.4 conn=Delta kv=0.22 pf=0.92 pmpp=1.2812850647282912 kva=2 irradiance=0.98
~ temperature=25 %cutin=0.1 %cutout=0.1 effcurve=Myeff P-TCurve=MyPvsT Daily=PVIrrad_diaria TDaily=MyTemp

New "PVsystem.GD.BT_1049993_M2" phases=3 bus1=1001049993.1.2.3.4 conn=Delta kv=0.22 pf=0.92 pmpp=1.2812850647282912 kva=2 irradiance=0.98
~ temperature=25 %cutin=0.1 %cutout=0.1 effcurve=Myeff P-TCurve=MyPvsT Daily=PVIrrad_diaria TDaily=MyTemp

New "PVsystem.GD.BT_1050070_M1" phases=3 bus1=1001050070.1.2.3.4 conn=Delta kv=0.22 pf=0.92 pmpp=1.5714678767462473 kva=2 irradiance=0.98
~ temperature=25 %cutin=0.1 %cutout=0.1 effcurve=Myeff P-TCurve=MyPvsT Daily=PVIrrad_diaria TDaily=MyTemp

New "PVsystem.GD.BT_1050070_M2" phases=3 bus1=1001050070.1.2.3.4 conn=Delta kv=0.22 pf=0.92 pmpp=1.5714678767462473 kva=2 irradiance=0.98
~ temperature=25 %cutin=0.1 %cutout=0.1 effcurve=Myeff P-TCurve=MyPvsT Daily=PVIrrad_diaria TDaily=MyTemp

New "PVsystem.GD.BT_1049958_M1" phases=1 bus1=1001049958.2.3.4 conn=Delta kv=0.22 pf=0.92 pmpp=2.505475597787453 kva=3 irradiance=0.98
~ temperature=25 %cutin=0.1 %cutout=0.1 effcurve=Myeff P-TCurve=MyPvsT Daily=PVIrrad_diaria TDaily=MyTemp

New "PVsystem.GD.BT_1049958_M2" phases=1 bus1=1001049958.2.3.4 conn=Delta kv=0.22 pf=0.92 pmpp=2.505475597787453 kva=3 irradiance=0.98
~ temperature=25 %cutin=0.1 %cutout=0.1 effcurve=Myeff P-TCurve=MyPvsT Daily=PVIrrad_diaria TDaily=MyTemp

New "PVsystem.GD.BT_1050084_M1" phases=3 bus1=1001050084.1.2.3.4 conn=Delta kv=0.22 pf=0.92 pmpp=1.3640437992343455 kva=2 irradiance=0.98
~ temperature=25 %cutin=0.1 %cutout=0.1 effcurve=Myeff P-TCurve=MyPvsT Daily=PVIrrad_diaria TDaily=MyTemp

New "PVsystem.GD.BT_1050084_M2" phases=3 bus1=1001050084.1.2.3.4 conn=Delta kv=0.22 pf=0.92 pmpp=1.3640437992343455 kva=2 irradiance=0.98
~ temperature=25 %cutin=0.1 %cutout=0.1 effcurve=Myeff P-TCurve=MyPvsT Daily=PVIrrad_diaria TDaily=MyTemp

New "PVsystem.GD.BT_1049909_M1" phases=3 bus1=1001049909.1.2.3.4 conn=Delta kv=0.22 pf=0.92 pmpp=1.4327470805056983 kva=2 irradiance=0.98
~ temperature=25 %cutin=0.1 %cutout=0.1 effcurve=Myeff P-TCurve=MyPvsT Daily=PVIrrad_diaria TDaily=MyTemp

New "PVsystem.GD.BT_1049909_M2" phases=3 bus1=1001049909.1.2.3.4 conn=Delta kv=0.22 pf=0.92 pmpp=1.4327470805056983 kva=2 irradiance=0.98
~ temperature=25 %cutin=0.1 %cutout=0.1 effcurve=Myeff P-TCurve=MyPvsT Daily=PVIrrad_diaria TDaily=MyTemp

New "PVsystem.GD.BT_1050049_M1" phases=3 bus1=1001050049.1.2.3.4 conn=Delta kv=0.22 pf=0.92 pmpp=1.4625112289028235 kva=2 irradiance=0.98
~ temperature=25 %cutin=0.1 %cutout=0.1 effcurve=Myeff P-TCurve=MyPvsT Daily=PVIrrad_diaria TDaily=MyTemp

New "PVsystem.GD.BT_1050049_M2" phases=3 bus1=1001050049.1.2.3.4 conn=Delta kv=0.22 pf=0.92 pmpp=1.4625112289028235 kva=2 irradiance=0.98
~ temperature=25 %cutin=0.1 %cutout=0.1 effcurve=Myeff P-TCurve=MyPvsT Daily=PVIrrad_diaria TDaily=MyTemp

New "PVsystem.GD.BT_4301661_M1" phases=3 bus1=1004301661.1.2.3.4 conn=Delta kv=0.22 pf=0.92 pmpp=3.887979437912422 kva=4 irradiance=0.98
~ temperature=25 %cutin=0.1 %cutout=0.1 effcurve=Myeff P-TCurve=MyPvsT Daily=PVIrrad_diaria TDaily=MyTemp

New "PVsystem.GD.BT_4301661_M2" phases=3 bus1=1004301661.1.2.3.4 conn=Delta kv=0.22 pf=0.92 pmpp=3.887979437912422 kva=4 irradiance=0.98
~ temperature=25 %cutin=0.1 %cutout=0.1 effcurve=Myeff P-TCurve=MyPvsT Daily=PVIrrad_diaria TDaily=MyTemp

New "PVsystem.GD.BT_1050007_M1" phases=3 bus1=1001050007.1.2.3.4 conn=Delta kv=0.22 pf=0.92 pmpp=2.1864795019650978 kva=3 irradiance=0.98
~ temperature=25 %cutin=0.1 %cutout=0.1 effcurve=Myeff P-TCurve=MyPvsT Daily=PVIrrad_diaria TDaily=MyTemp

New "PVsystem.GD.BT_1050007_M2" phases=3 bus1=1001050007.1.2.3.4 conn=Delta kv=0.22 pf=0.92 pmpp=2.1864795019650978 kva=3 irradiance=0.98
~ temperature=25 %cutin=0.1 %cutout=0.1 effcurve=Myeff P-TCurve=MyPvsT Daily=PVIrrad_diaria TDaily=MyTemp

New "PVsystem.GD.BT_4496954_M1" phases=3 bus1=1004496954.1.2.3.4 conn=Delta kv=0.22 pf=0.92 pmpp=2.746669377308843 kva=3 irradiance=0.98
~ temperature=25 %cutin=0.1 %cutout=0.1 effcurve=Myeff P-TCurve=MyPvsT Daily=PVIrrad_diaria TDaily=MyTemp

New "PVsystem.GD.BT_4496954_M2" phases=3 bus1=1004496954.1.2.3.4 conn=Delta kv=0.22 pf=0.92 pmpp=2.746669377308843 kva=3 irradiance=0.98
~ temperature=25 %cutin=0.1 %cutout=0.1 effcurve=Myeff P-TCurve=MyPvsT Daily=PVIrrad_diaria TDaily=MyTemp

New "PVsystem.GD.BT_1050021_M1" phases=3 bus1=1001050021.1.2.3.4 conn=Delta kv=0.22 pf=0.92 pmpp=2.1732175104351517 kva=3 irradiance=0.98
~ temperature=25 %cutin=0.1 %cutout=0.1 effcurve=Myeff P-TCurve=MyPvsT Daily=PVIrrad_diaria TDaily=MyTemp

New "PVsystem.GD.BT_1050021_M2" phases=3 bus1=1001050021.1.2.3.4 conn=Delta kv=0.22 pf=0.92 pmpp=2.1732175104351517 kva=3 irradiance=0.98
~ temperature=25 %cutin=0.1 %cutout=0.1 effcurve=Myeff P-TCurve=MyPvsT Daily=PVIrrad_diaria TDaily=MyTemp

New "PVsystem.GD.BT_1049972_M1" phases=3 bus1=1001049972.1.2.3.4 conn=Delta kv=0.22 pf=0.92 pmpp=1.015129426359059 kva=2 irradiance=0.98
~ temperature=25 %cutin=0.1 %cutout=0.1 effcurve=Myeff P-TCurve=MyPvsT Daily=PVIrrad_diaria TDaily=MyTemp

New "PVsystem.GD.BT_1049972_M2" phases=3 bus1=1001049972.1.2.3.4 conn=Delta kv=0.22 pf=0.92 pmpp=1.015129426359059 kva=2 irradiance=0.98
~ temperature=25 %cutin=0.1 %cutout=0.1 effcurve=Myeff P-TCurve=MyPvsT Daily=PVIrrad_diaria TDaily=MyTemp

New "PVsystem.GD.BT_1050091_M1" phases=1 bus1=1001050091.3.1.4 conn=Delta kv=0.22 pf=0.92 pmpp=0.6459675422577057 kva=1 irradiance=0.98
~ temperature=25 %cutin=0.1 %cutout=0.1 effcurve=Myeff P-TCurve=MyPvsT Daily=PVIrrad_diaria TDaily=MyTemp

New "PVsystem.GD.BT_1050091_M2" phases=1 bus1=1001050091.3.1.4 conn=Delta kv=0.22 pf=0.92 pmpp=0.6459675422577057 kva=1 irradiance=0.98
~ temperature=25 %cutin=0.1 %cutout=0.1 effcurve=Myeff P-TCurve=MyPvsT Daily=PVIrrad_diaria TDaily=MyTemp

New "PVsystem.GD.BT_1049979_M1" phases=3 bus1=1001049979.1.2.3.4 conn=Delta kv=0.22 pf=0.92 pmpp=3.0119995095946273 kva=4 irradiance=0.98
~ temperature=25 %cutin=0.1 %cutout=0.1 effcurve=Myeff P-TCurve=MyPvsT Daily=PVIrrad_diaria TDaily=MyTemp

New "PVsystem.GD.BT_1049979_M2" phases=3 bus1=1001049979.1.2.3.4 conn=Delta kv=0.22 pf=0.92 pmpp=3.0119995095946273 kva=4 irradiance=0.98
~ temperature=25 %cutin=0.1 %cutout=0.1 effcurve=Myeff P-TCurve=MyPvsT Daily=PVIrrad_diaria TDaily=MyTemp

New "PVsystem.GD.BT_1050035_M1" phases=3 bus1=1001050035.1.2.3.4 conn=Delta kv=0.22 pf=0.92 pmpp=0.16501117797589215 kva=1 irradiance=0.98
~ temperature=25 %cutin=0.1 %cutout=0.1 effcurve=Myeff P-TCurve=MyPvsT Daily=PVIrrad_diaria TDaily=MyTemp

New "PVsystem.GD.BT_1050035_M2" phases=3 bus1=1001050035.1.2.3.4 conn=Delta kv=0.22 pf=0.92 pmpp=0.16501117797589215 kva=1 irradiance=0.98
~ temperature=25 %cutin=0.1 %cutout=0.1 effcurve=Myeff P-TCurve=MyPvsT Daily=PVIrrad_diaria TDaily=MyTemp

New "PVsystem.GD.BT_1050126_M1" phases=1 bus1=1001050126.3.1.4 conn=Delta kv=0.22 pf=0.92 pmpp=1.2035660699545279 kva=2 irradiance=0.98
~ temperature=25 %cutin=0.1 %cutout=0.1 effcurve=Myeff P-TCurve=MyPvsT Daily=PVIrrad_diaria TDaily=MyTemp

New "PVsystem.GD.BT_1050126_M2" phases=1 bus1=1001050126.3.1.4 conn=Delta kv=0.22 pf=0.92 pmpp=1.2035660699545279 kva=2 irradiance=0.98
~ temperature=25 %cutin=0.1 %cutout=0.1 effcurve=Myeff P-TCurve=MyPvsT Daily=PVIrrad_diaria TDaily=MyTemp

New "PVsystem.GD.BT_1050042_M1" phases=3 bus1=1001050042.1.2.3.4 conn=Delta kv=0.22 pf=0.92 pmpp=9.487316673289982 kva=10 irradiance=0.98
~ temperature=25 %cutin=0.1 %cutout=0.1 effcurve=Myeff P-TCurve=MyPvsT Daily=PVIrrad_diaria TDaily=MyTemp

New "PVsystem.GD.BT_1050042_M2" phases=3 bus1=1001050042.1.2.3.4 conn=Delta kv=0.22 pf=0.92 pmpp=9.487316673289982 kva=10 irradiance=0.98
~ temperature=25 %cutin=0.1 %cutout=0.1 effcurve=Myeff P-TCurve=MyPvsT Daily=PVIrrad_diaria TDaily=MyTemp

New "PVsystem.GD.BT_1049986_M1" phases=3 bus1=1001049986.1.2.3.4 conn=Delta kv=0.22 pf=0.92 pmpp=1.516908979295391 kva=2 irradiance=0.98
~ temperature=25 %cutin=0.1 %cutout=0.1 effcurve=Myeff P-TCurve=MyPvsT Daily=PVIrrad_diaria TDaily=MyTemp

New "PVsystem.GD.BT_1049986_M2" phases=3 bus1=1001049986.1.2.3.4 conn=Delta kv=0.22 pf=0.92 pmpp=1.516908979295391 kva=2 irradiance=0.98
~ temperature=25 %cutin=0.1 %cutout=0.1 effcurve=Myeff P-TCurve=MyPvsT Daily=PVIrrad_diaria TDaily=MyTemp

New "PVsystem.GD.BT_1049916_M1" phases=3 bus1=1001049916.1.2.3.4 conn=Delta kv=0.22 pf=0.92 pmpp=1.6057002137122425 kva=2 irradiance=0.98
~ temperature=25 %cutin=0.1 %cutout=0.1 effcurve=Myeff P-TCurve=MyPvsT Daily=PVIrrad_diaria TDaily=MyTemp

New "PVsystem.GD.BT_1049916_M2" phases=3 bus1=1001049916.1.2.3.4 conn=Delta kv=0.22 pf=0.92 pmpp=1.6057002137122425 kva=2 irradiance=0.98
~ temperature=25 %cutin=0.1 %cutout=0.1 effcurve=Myeff P-TCurve=MyPvsT Daily=PVIrrad_diaria TDaily=MyTemp

New "PVsystem.GD.BT_10406755_M1" phases=1 bus1=1010406755.2.3.4 conn=Delta kv=0.22 pf=0.92 pmpp=1.3000735109619523 kva=2 irradiance=0.98
~ temperature=25 %cutin=0.1 %cutout=0.1 effcurve=Myeff P-TCurve=MyPvsT Daily=PVIrrad_diaria TDaily=MyTemp

New "PVsystem.GD.BT_10406755_M2" phases=1 bus1=1010406755.2.3.4 conn=Delta kv=0.22 pf=0.92 pmpp=1.3000735109619523 kva=2 irradiance=0.98
~ temperature=25 %cutin=0.1 %cutout=0.1 effcurve=Myeff P-TCurve=MyPvsT Daily=PVIrrad_diaria TDaily=MyTemp

New "PVsystem.GD.BT_1050063_M1" phases=3 bus1=1001050063.1.2.3.4 conn=Delta kv=0.22 pf=0.92 pmpp=2.948546661927295 kva=3 irradiance=0.98
~ temperature=25 %cutin=0.1 %cutout=0.1 effcurve=Myeff P-TCurve=MyPvsT Daily=PVIrrad_diaria TDaily=MyTemp

New "PVsystem.GD.BT_1050063_M2" phases=3 bus1=1001050063.1.2.3.4 conn=Delta kv=0.22 pf=0.92 pmpp=2.948546661927295 kva=3 irradiance=0.98
~ temperature=25 %cutin=0.1 %cutout=0.1 effcurve=Myeff P-TCurve=MyPvsT Daily=PVIrrad_diaria TDaily=MyTemp

New "PVsystem.GD.BT_10214815_M1" phases=1 bus1=1010214815.1.2.4 conn=Delta kv=0.22 pf=0.92 pmpp=1.4031367756476787 kva=2 irradiance=0.98
~ temperature=25 %cutin=0.1 %cutout=0.1 effcurve=Myeff P-TCurve=MyPvsT Daily=PVIrrad_diaria TDaily=MyTemp

New "PVsystem.GD.BT_10214815_M2" phases=1 bus1=1010214815.1.2.4 conn=Delta kv=0.22 pf=0.92 pmpp=1.4031367756476787 kva=2 irradiance=0.98
~ temperature=25 %cutin=0.1 %cutout=0.1 effcurve=Myeff P-TCurve=MyPvsT Daily=PVIrrad_diaria TDaily=MyTemp

New "PVsystem.GD.BT_1050133_M1" phases=3 bus1=1001050133.1.2.3.4 conn=Delta kv=0.22 pf=0.92 pmpp=2.0892468333257206 kva=3 irradiance=0.98
~ temperature=25 %cutin=0.1 %cutout=0.1 effcurve=Myeff P-TCurve=MyPvsT Daily=PVIrrad_diaria TDaily=MyTemp

New "PVsystem.GD.BT_1050133_M2" phases=3 bus1=1001050133.1.2.3.4 conn=Delta kv=0.22 pf=0.92 pmpp=2.0892468333257206 kva=3 irradiance=0.98
~ temperature=25 %cutin=0.1 %cutout=0.1 effcurve=Myeff P-TCurve=MyPvsT Daily=PVIrrad_diaria TDaily=MyTemp

New "PVsystem.GD.BT_1050077_M1" phases=3 bus1=1001050077.1.2.3.4 conn=Delta kv=0.22 pf=0.92 pmpp=3.457223510957103 kva=4 irradiance=0.98
~ temperature=25 %cutin=0.1 %cutout=0.1 effcurve=Myeff P-TCurve=MyPvsT Daily=PVIrrad_diaria TDaily=MyTemp

New "PVsystem.GD.BT_1050077_M2" phases=3 bus1=1001050077.1.2.3.4 conn=Delta kv=0.22 pf=0.92 pmpp=3.457223510957103 kva=4 irradiance=0.98
~ temperature=25 %cutin=0.1 %cutout=0.1 effcurve=Myeff P-TCurve=MyPvsT Daily=PVIrrad_diaria TDaily=MyTemp

New "PVsystem.GD.BT_1049951_M1" phases=3 bus1=1001049951.1.2.3.4 conn=Delta kv=0.22 pf=0.92 pmpp=0.8262144524719828 kva=1 irradiance=0.98
~ temperature=25 %cutin=0.1 %cutout=0.1 effcurve=Myeff P-TCurve=MyPvsT Daily=PVIrrad_diaria TDaily=MyTemp

New "PVsystem.GD.BT_1049951_M2" phases=3 bus1=1001049951.1.2.3.4 conn=Delta kv=0.22 pf=0.92 pmpp=0.8262144524719828 kva=1 irradiance=0.98
~ temperature=25 %cutin=0.1 %cutout=0.1 effcurve=Myeff P-TCurve=MyPvsT Daily=PVIrrad_diaria TDaily=MyTemp

New "PVsystem.GD.BT_1049965_M1" phases=3 bus1=1001049965.1.2.3.4 conn=Delta kv=0.22 pf=0.92 pmpp=2.600474266808963 kva=3 irradiance=0.98
~ temperature=25 %cutin=0.1 %cutout=0.1 effcurve=Myeff P-TCurve=MyPvsT Daily=PVIrrad_diaria TDaily=MyTemp

New "PVsystem.GD.BT_1049965_M2" phases=3 bus1=1001049965.1.2.3.4 conn=Delta kv=0.22 pf=0.92 pmpp=2.600474266808963 kva=3 irradiance=0.98
~ temperature=25 %cutin=0.1 %cutout=0.1 effcurve=Myeff P-TCurve=MyPvsT Daily=PVIrrad_diaria TDaily=MyTemp

New "PVsystem.GD.BT_1050028_M1" phases=3 bus1=1001050028.1.2.3.4 conn=Delta kv=0.22 pf=0.92 pmpp=1.0936242067307402 kva=2 irradiance=0.98
~ temperature=25 %cutin=0.1 %cutout=0.1 effcurve=Myeff P-TCurve=MyPvsT Daily=PVIrrad_diaria TDaily=MyTemp

New "PVsystem.GD.BT_1050028_M2" phases=3 bus1=1001050028.1.2.3.4 conn=Delta kv=0.22 pf=0.92 pmpp=1.0936242067307402 kva=2 irradiance=0.98
~ temperature=25 %cutin=0.1 %cutout=0.1 effcurve=Myeff P-TCurve=MyPvsT Daily=PVIrrad_diaria TDaily=MyTemp

New "PVsystem.GD.BT_11266978_M1" phases=1 bus1=1011266978.1.2.4 conn=Delta kv=0.22 pf=0.92 pmpp=0.12114855463844801 kva=1 irradiance=0.98
~ temperature=25 %cutin=0.1 %cutout=0.1 effcurve=Myeff P-TCurve=MyPvsT Daily=PVIrrad_diaria TDaily=MyTemp

New "PVsystem.GD.BT_11266978_M2" phases=1 bus1=1011266978.1.2.4 conn=Delta kv=0.22 pf=0.92 pmpp=0.12114855463844801 kva=1 irradiance=0.98
~ temperature=25 %cutin=0.1 %cutout=0.1 effcurve=Myeff P-TCurve=MyPvsT Daily=PVIrrad_diaria TDaily=MyTemp

New "PVsystem.GD.BT_1050105_M1" phases=3 bus1=1001050105.1.2.3.4 conn=Delta kv=0.22 pf=0.92 pmpp=1.348776403396267 kva=2 irradiance=0.98
~ temperature=25 %cutin=0.1 %cutout=0.1 effcurve=Myeff P-TCurve=MyPvsT Daily=PVIrrad_diaria TDaily=MyTemp

New "PVsystem.GD.BT_1050105_M2" phases=3 bus1=1001050105.1.2.3.4 conn=Delta kv=0.22 pf=0.92 pmpp=1.348776403396267 kva=2 irradiance=0.98
~ temperature=25 %cutin=0.1 %cutout=0.1 effcurve=Myeff P-TCurve=MyPvsT Daily=PVIrrad_diaria TDaily=MyTemp

New "PVsystem.GD.BT_4127207_M1" phases=3 bus1=1004127207.1.2.3.4 conn=Delta kv=0.22 pf=0.92 pmpp=3.7887953323959342 kva=4 irradiance=0.98
~ temperature=25 %cutin=0.1 %cutout=0.1 effcurve=Myeff P-TCurve=MyPvsT Daily=PVIrrad_diaria TDaily=MyTemp

New "PVsystem.GD.BT_4127207_M2" phases=3 bus1=1004127207.1.2.3.4 conn=Delta kv=0.22 pf=0.92 pmpp=3.7887953323959342 kva=4 irradiance=0.98
~ temperature=25 %cutin=0.1 %cutout=0.1 effcurve=Myeff P-TCurve=MyPvsT Daily=PVIrrad_diaria TDaily=MyTemp

New "PVsystem.GD.BT_1049930_M1" phases=1 bus1=1001049930.1.2.4 conn=Delta kv=0.22 pf=0.92 pmpp=4.995609333082899 kva=5 irradiance=0.98
~ temperature=25 %cutin=0.1 %cutout=0.1 effcurve=Myeff P-TCurve=MyPvsT Daily=PVIrrad_diaria TDaily=MyTemp

New "PVsystem.GD.BT_1049930_M2" phases=1 bus1=1001049930.1.2.4 conn=Delta kv=0.22 pf=0.92 pmpp=4.995609333082899 kva=5 irradiance=0.98
~ temperature=25 %cutin=0.1 %cutout=0.1 effcurve=Myeff P-TCurve=MyPvsT Daily=PVIrrad_diaria TDaily=MyTemp

New "PVsystem.GD.BT_1050112_M1" phases=3 bus1=1001050112.1.2.3.4 conn=Delta kv=0.22 pf=0.92 pmpp=7.251640689817609 kva=8 irradiance=0.98
~ temperature=25 %cutin=0.1 %cutout=0.1 effcurve=Myeff P-TCurve=MyPvsT Daily=PVIrrad_diaria TDaily=MyTemp

New "PVsystem.GD.BT_1050112_M2" phases=3 bus1=1001050112.1.2.3.4 conn=Delta kv=0.22 pf=0.92 pmpp=7.251640689817609 kva=8 irradiance=0.98
~ temperature=25 %cutin=0.1 %cutout=0.1 effcurve=Myeff P-TCurve=MyPvsT Daily=PVIrrad_diaria TDaily=MyTemp

New "PVsystem.GD.BT_1050098_M1" phases=3 bus1=1001050098.1.2.3.4 conn=Delta kv=0.22 pf=0.92 pmpp=1.477392437210061 kva=2 irradiance=0.98
~ temperature=25 %cutin=0.1 %cutout=0.1 effcurve=Myeff P-TCurve=MyPvsT Daily=PVIrrad_diaria TDaily=MyTemp

New "PVsystem.GD.BT_1050098_M2" phases=3 bus1=1001050098.1.2.3.4 conn=Delta kv=0.22 pf=0.92 pmpp=1.477392437210061 kva=2 irradiance=0.98
~ temperature=25 %cutin=0.1 %cutout=0.1 effcurve=Myeff P-TCurve=MyPvsT Daily=PVIrrad_diaria TDaily=MyTemp

New "PVsystem.GD.BT_1049902_M1" phases=1 bus1=1001049902.1.2.4 conn=Delta kv=0.22 pf=0.92 pmpp=3.0030565839925587 kva=4 irradiance=0.98
~ temperature=25 %cutin=0.1 %cutout=0.1 effcurve=Myeff P-TCurve=MyPvsT Daily=PVIrrad_diaria TDaily=MyTemp

New "PVsystem.GD.BT_1049902_M2" phases=1 bus1=1001049902.1.2.4 conn=Delta kv=0.22 pf=0.92 pmpp=3.0030565839925587 kva=4 irradiance=0.98
~ temperature=25 %cutin=0.1 %cutout=0.1 effcurve=Myeff P-TCurve=MyPvsT Daily=PVIrrad_diaria TDaily=MyTemp

New "PVsystem.GD.BT_1049923_M1" phases=1 bus1=1001049923.3.1.4 conn=Delta kv=0.22 pf=0.92 pmpp=1.8505188633081444 kva=2 irradiance=0.98
~ temperature=25 %cutin=0.1 %cutout=0.1 effcurve=Myeff P-TCurve=MyPvsT Daily=PVIrrad_diaria TDaily=MyTemp

New "PVsystem.GD.BT_1049923_M2" phases=1 bus1=1001049923.3.1.4 conn=Delta kv=0.22 pf=0.92 pmpp=1.8505188633081444 kva=2 irradiance=0.98
~ temperature=25 %cutin=0.1 %cutout=0.1 effcurve=Myeff P-TCurve=MyPvsT Daily=PVIrrad_diaria TDaily=MyTemp

New "PVsystem.GD.BT_3640476_M1" phases=1 bus1=1003640476.2.3.4 conn=Delta kv=0.22 pf=0.92 pmpp=1.753408902992599 kva=2 irradiance=0.98
~ temperature=25 %cutin=0.1 %cutout=0.1 effcurve=Myeff P-TCurve=MyPvsT Daily=PVIrrad_diaria TDaily=MyTemp

New "PVsystem.GD.BT_3640476_M2" phases=1 bus1=1003640476.2.3.4 conn=Delta kv=0.22 pf=0.92 pmpp=1.753408902992599 kva=2 irradiance=0.98
~ temperature=25 %cutin=0.1 %cutout=0.1 effcurve=Myeff P-TCurve=MyPvsT Daily=PVIrrad_diaria TDaily=MyTemp

